
Note: No compatibility mode selected!


Circuit: * ============================================================

Doing analysis at TEMP = 27.000000 and TNOM = 27.000000

Using SPARSE 1.3 as Direct Linear Solver

Checking parameters for BSIM 3.2 model cmosp
Warning: Pd = 0 is less than W.

Checking parameters for BSIM 3.2 model cmosn
Warning: Pd = 0 is less than W.

Checking parameters for BSIM 3.2 model cmosn
Warning: Pd = 0 is less than W.
Warning: Ps = 0 is less than W.

Checking parameters for BSIM 3.2 model cmosn
Warning: Pd = 0 is less than W.

Checking parameters for BSIM 3.2 model cmosn
Warning: Pd = 0 is less than W.

Checking parameters for BSIM 3.2 model cmosn
Warning: Pd = 0 is less than W.
Warning: Ps = 0 is less than W.
Using transient initial conditions

No. of Data Rows : 1425
ngspice-42 done
